! -------------------------------------------------------------------- !
! WAVEWATCH III ww3_prnc.nml - Field preprocessor                      !
! -------------------------------------------------------------------- !
