! -------------------------------------------------------------------- !
! WAVEWATCH III - ww3_bounc.nml - Boundary input post-processing       !
! -------------------------------------------------------------------- !
