! -------------------------------------------------------------------- !
! WAVEWATCH III - ww3_ounp.nml - Point output post-processing          !
! -------------------------------------------------------------------- !
